LTspice 24.0.12 for Windows
Circuit: * C:\Users\vnjot\AppData\Local\Programs\ADI\LTspice\Draft7.asc
Start Time: Wed Jul 15 10:25:54 2026
solver = Normal
Maximum thread count: 16
tnom = 27
temp = 27
method = modified trap
Limiting rise time of source vswitch to 1.2e-07
Limiting fall time of source vswitch to 1.2e-07
Direct Newton iteration for .op point succeeded.
Total elapsed time: 0.787 seconds.

