LTspice 24.0.12 for Windows
Circuit: * C:\Users\vnjot\AppData\Local\Programs\ADI\LTspice\Draft8.asc
Start Time: Sat Jun 20 22:12:42 2026
solver = Normal
Maximum thread count: 16
tnom = 27
temp = 27
method = modified trap
Limiting rise time of source vswitch1 to 2e-07
Limiting fall time of source vswitch1 to 2e-07
Direct Newton iteration for .op point succeeded.
Total elapsed time: 0.739 seconds.

